<nodes>
    <node id="t" x="150" y="150" type="traffic_light"/>
    
    <node id="n" x="150" y="300"/>
    <node id="s" x="150" y="0"/>
    <node id="e" x="300" y="150"/>
    <node id="w" x="0" y="150"/>
</nodes>