<routes>
    <vType id="car" accel="2.6" decel="4.5" sigma="0.5" length="5" minGap="2.5" maxSpeed="13.9" guiShape="passenger"/>

    <flow id="f1" type="car" begin="0" end="3600" vehsPerHour="300" from="n_t" to="t_s"/>
    <flow id="f2" type="car" begin="0" end="3600" vehsPerHour="300" from="s_t" to="t_n"/>

    <flow id="f3" type="car" begin="0" end="3600" vehsPerHour="100" from="e_t" to="t_w"/>
    <flow id="spike_we" type="car" begin="1000" end="2000" vehsPerHour="1000" from="w_t" to="t_e"/>
    <flow id="spike_ew" type="car" begin="1000" end="2000" vehsPerHour="1000" from="e_t" to="t_w"/>
</routes>